Circuit: * C:\InterviewAssignment_HarshGupta\InRush Current Control Circuit.asc

.OP point found by inspection.

Date: Thu May  9 16:56:18 2024
Total elapsed time: 0.069 seconds.

tnom = 27
temp = 27
method = modified trap
totiter = 2347
traniter = 2347
tranpoints = 1121
accept = 1109
rejected = 12
matrix size = 9
fillins = 2
solver = Normal
Avg thread counts: 1.3/1.6/1.6/1.3
Matrix Compiler1:      34 opcodes  0.2/[0.1]/0.1
Matrix Compiler2: off  [0.1]/0.1/0.1

